Version 4
SHEET 1 880 680
WIRE -560 -1936 -560 -2032
WIRE -256 -1936 -256 -2032
WIRE 128 -1824 128 -2032
WIRE -256 -1776 -256 -1856
WIRE 64 -1776 -256 -1776
WIRE -256 -1712 -256 -1776
WIRE -560 -1664 -560 -1856
WIRE -320 -1664 -560 -1664
WIRE 128 -1632 128 -1728
WIRE -256 -1552 -256 -1616
WIRE -560 -1472 -560 -1664
WIRE -560 -1472 -992 -1472
WIRE 128 -1456 128 -1552
WIRE 544 -1456 128 -1456
WIRE 128 -1376 128 -1456
WIRE -256 -1312 -256 -1360
WIRE -992 -1264 -992 -1472
WIRE -560 -1264 -560 -1472
WIRE -320 -1264 -560 -1264
WIRE 544 -1248 544 -1456
WIRE 128 -1136 128 -1296
WIRE -256 -1088 -256 -1216
WIRE 64 -1088 -256 -1088
WIRE -560 -992 -560 -1264
WIRE -256 -992 -256 -1088
WIRE -560 -752 -560 -912
WIRE -256 -752 -256 -912
WIRE 128 -752 128 -1040
WIRE -992 -720 -992 -1184
WIRE 544 -720 544 -1168
FLAG -944 -1920 +Vcc
FLAG -784 -1920 -Vcc
FLAG -944 -1840 0
FLAG -784 -1840 0
FLAG -256 -1552 -Vcc
FLAG -256 -1360 +Vcc
FLAG -560 -2032 +Vcc
FLAG -256 -2032 +Vcc
FLAG 128 -2032 +Vcc
FLAG -560 -752 -Vcc
FLAG -256 -752 -Vcc
FLAG 128 -752 -Vcc
FLAG -992 -720 0
FLAG 544 -720 0
FLAG -992 -1472 Vi
FLAG 544 -1456 Vo
SYMBOL npn -320 -1312 R0
SYMATTR InstName Q2
SYMATTR Value Qtip31a
SYMBOL voltage -944 -1936 R0
SYMATTR InstName V1
SYMATTR Value 12V
SYMBOL voltage -784 -1936 R0
SYMATTR InstName V2
SYMATTR Value -12V
SYMBOL pnp 64 -1040 M180
SYMATTR InstName Q4
SYMATTR Value Qtip32a
SYMBOL npn 64 -1824 R0
SYMATTR InstName Q3
SYMATTR Value Qtip31a
SYMBOL pnp -320 -1616 M180
SYMATTR InstName Q1
SYMATTR Value Qtip32a
SYMBOL res -576 -1952 R0
SYMATTR InstName RA1
SYMATTR Value 1k
SYMBOL res -576 -1008 R0
SYMATTR InstName RA2
SYMATTR Value 1k
SYMBOL res -272 -1952 R0
SYMATTR InstName R1
SYMATTR Value 400R
SYMBOL res -272 -1008 R0
SYMATTR InstName R2
SYMATTR Value 400R
SYMBOL voltage -992 -1280 R0
WINDOW 123 0 0 Left 0
WINDOW 39 0 0 Left 0
SYMATTR InstName Vs
SYMATTR Value SINE(0 AC 6)
SYMBOL res 112 -1648 R0
SYMATTR InstName R3
SYMATTR Value 1R
SYMBOL res 112 -1392 R0
SYMATTR InstName R4
SYMATTR Value 1R
SYMBOL res 528 -1264 R0
SYMATTR InstName RL
SYMATTR Value 4R
TEXT 256 -2032 Left 2 !.lib libraries/tip31a.lib\n.lib libraries/tip32a.lib
TEXT 256 -1976 Left 2 !.ac dec 100 1Hz 1e+6Hz
TEXT 256 -1952 Left 2 ;.tran 0 500us 0 500ns
